.tit  {
display: block;
font-size: x-large;
text-align: center;
font-weight: bold;
text-indent: 0em;
}

.stit  {
display: block;
font-size: large;
text-align: center;
text-indent: 0em;
}

.au  {
display: block;
font-size: small;
text-align: right;
text-indent: 0em;
font-family: sans-serif;
}

.con  {
display: block;
font-size: medium;
text-align: center;
text-indent: 0em;
}

.htit  {
display: block;
font-size: xx-large;
text-align: center;
font-weight: bold;
margin-top: 3em;
margin-bottom: 1em;
text-indent: 0em;
}

.imp  {
display: block;
font-size: medium;
font-weight: bold;
text-align: center;
text-indent: 0em;
margin-top: 0em;
margin-bottom: 0em;
}

.ded  {
display: block;
font-size: medium;
text-align: center;
margin-top: 0em;
margin-bottom: 1em;
text-indent: 0em;
font-weight: bold;
}

.dedau  {
display: block;
font-size: x-small;
text-align: right;
margin-right: 1em;
text-indent: 0em;
}

.ser  {
display: block;
font-size: medium;
text-align: center;
text-indent: 0em;
}

.rl  {
display: block;
font-size: small;
text-align: center;
font-style: italic;
text-indent: 0em;
}

.tran  {
display: block;
font-size: small;
text-align: center;
text-indent: 0em;
}

.pub  {
display: block;
font-size: small;
text-align: center;
text-indent: 0em;
}

.cit  {
display: block;
font-size: x-small;
text-align: center;
text-indent: 0em;
}

.epi {
display: block;
font-size: small;
text-align: left;
margin-right: 2em;
margin-left: 1em;
text-indent: 0em;
margin-top: 0em;
margin-Bottom: 0em;
}

.eps  {
display: block;
font-size: x-small;
text-align: center;
margin-right: 0em;
margin-left: 0em;
text-indent: 0em;
margin-top: -1em;
margin-Bottom: 0em;
}

.epiv  {
display: block;
font-size: x-small;
text-align: left;
margin-left: 8em;
margin-right: 2em;
text-indent: 0em;
}
.epivc  {
display: block;
font-size: small;
text-align: center;
margin-left: 8em;
margin-right: 2em;
text-indent: 0em;
}

.pn  {
display: block;
font-size: small;
text-align: center;
text-indent: 0em;
font-weight: bold;
margin-top: 1em;
margin-bottom: 1em;
font-weight: bold;
}

.pt  {
display: block;
font-size: x-large;
font-weight: bold;
text-align: center;
text-indent: 0em;
margin-top: 1em;
margin-bottom: 0em;
}

.pst  {
display: block;
font-size: medium;
text-align: center;
margin-top: 1em;
margin-bottom: 0em;
font-weight: bold;
text-indent: 0em;
}

.pepi  {
display: block;
font-size: x-small;
text-align: left;
margin-left: 8em;
margin-right: 2em;
text-indent: 0em;
}

.peps  {
display: block;
font-size: x-small;
text-align: right;
font-style: italic;
margin-bottom: 1em;
margin-right: 2em;
text-indent: 0em;
}

.pepiv  {
display: block;
font-size: x-small;
text-align: left;
margin-left: 8em;
margin-right: 2em;
text-indent: 0em;
}

.pepivc  {
display: block;
font-size: x-small;
text-align: center;
margin-left: 8em;
margin-right: 2em;
text-indent: 0em;
}

.potx  {
display: block;
font-size: small;
text-align: justify;
text-indent: 1em;
}

.potx1  {
font-size: small;
text-align: justify;
text-indent: 0em;
}

.cn  {
display: block;
font-size: medium;
font-weight: bold;
text-align: center;
text-indent: 0em;
margin-top: 0em;
margin-bottom: 2em;
}

.ct  {
display: block;
font-size: xx-large;
font-weight: bold;
text-align: center;
text-indent: 0em;
margin-top: 0em;
margin-bottom: 1em;
}

.cst  {
display: block;
font-size: small;
font-weight: bold;
text-align: center;
text-indent: 0em;
margin-top: 1em;
margin-bottom: 2em;
font-style: italic;
}

.ca  {
display: block;
font-size: medium;
text-align: center;
font-style: italic;
text-indent: 0em;
}

.da  {
display: block;
font-size: small;
text-align: right;
font-style: italic;
margin-right: 1em;
text-indent: 0em;
}

.cepi  {
display: block;
font-size: x-small;
text-align: left;
margin-left: 8em;
margin-right: 2em;
text-indent: 0em;
}

.ceps  {
display: block;
font-size: x-small;
text-align: right;
font-style: italic;
margin-right: 2em;
margin-bottom: 1em;
text-indent: 0em;
}

.cepiv  {
display: block;
font-size: x-small;
text-align: left;
margin-left: 8em;
margin-right: 2em;
text-indent: 0em;
}

.cepivc  {
display: block;
font-size: x-small;
text-align: center;
margin-left: 8em;
margin-right: 2em;
text-indent: 0em;
}

.cotx  {
display: block;
font-size: small;
text-align: justify;
font-style: italic;
text-indent: 1em;
}

.cotx1  {
display: block;
font-size: small;
text-align: justify;
font-style: italic;
text-indent: 0em;
}


.tx  {
display: block;
font-size: small;
text-align: justify;
margin-bottom: 0em;
margin-top: 0em;
text-indent: 1em;
}

.tx1  {
display: block;
margin-bottom: 0em;
margin-top: 0em;
font-size: small;
text-align: justify;
text-indent: 0em;
}

.atx  {
display: block;
font-size: small;
text-align: center;
text-indent: 0em;
margin-top: 1em;
margin-bottom: 1em;
}

.atx1  {
display: block;
font-size: small;
text-align: justify;
font-style: italic;
text-indent: 0em;
font-weight: bold; 
}

.com  {
display: block;
font-family: monospace;
font-size: small;
text-align: left;
text-indent: 1em;
font-weight: bold;
}

.com1  {
display: block;
font-family: monospace;
font-size: small;
text-align: left;
text-indent: 0em;
font-weight: bold;
}

.dis {
display: in-line;
font-size: x-small;
font-family: sans-serif;
}

.nar  {
display: block;
font-size: small;
text-align: justify;
text-indent: 1em;
font-style: italic;
}

.nar1  {
font-size: small;
text-align: justify;
font-style: italic;
text-indent: 0em;
}

.dia  {
display: block;
font-size: small;
text-align : justify;
margin-left: 2em;
text-indent: -1em;
}

.fn  {
display: block;
font-size: small;
text-align: justify;
text-indent: 1em;
}

.fntag  {
display: block;
font-size: small;
text-indent: 0em;
}

.sda  {
display: block;
font-size: x-small;
text-align: right;
text-indent: 0em;
}

.sloc  {
display: block;
font-size: x-small;
text-align: right;
text-indent: 0em;
}

.ic   {
display: in-line;
font-size: xx-large;
text-align: left;
font-weight: bold;
color: gray;
} 


.ls1  {
display: in-line;
font-size: medium;
text-align: left;
font-family: sans-serif;
color: gray;
}

.ls2  {
display: block;
margin-bottom: 2em;
}

.ls3  {
display: block;
margin-bottom: 3em;
}

.orn  {
display: block;
margin-bottom: 1em;
text-align: center;
margin-top: 1em;
}

.cb  {
 page-break-before: always;
}

.pb  {
 page-break-before: always;
}

.fmh  {
display: block;
font-size: large;
text-align: center;
margin-top: 1em;
margin-bottom: 3em;
font-weight: bold;
}

.fmsh  {
display: block;
font-size: large;
text-align: center;
text-indent: 0em;
margin-top: 1em;
margin-bottom: 2em;
font-weight: bold;
}

.fmah  {
display: block;
font-size: medium; 
font-weight: bold;
margin-top: 1em;
margin-bottom: 1em;
text-align: center;
text-indent: 0em;
}

.fmh1  {
display: block;
font-size: medium; 
font-weight: bold; 
text-align: center;
margin-top: 2em;
margin-bottom: 1em;
text-indent: 0em;
}

.fmh2  {
display: block;
font-size: medium; 
text-align: center;
margin-top: 2em;
margin-bottom: 1em;
text-indent: 0em;
}

.fmh3  {
display: block;
font-size: medium; 
font-style: italic;
text-align: left;
margin-top: 2em;
margin-bottom: 1em;
text-indent: 0em;
}

.fmh4  {
display: block;
font-size: small;
font-weight: bold; 
text-align: center;
margin-top: 2em;
margin-bottom: 1em;
text-indent: 0em;
}

.fmh5  {
display: block;
font-size: small; 
text-align: center;
margin-top: 2em;
margin-bottom: 1em;
text-indent: 0em;
}

.fmh6  {
display: block;
font-size: small; 
font-style: italic;
text-align: left;
margin-top: 2em;
margin-bottom: 1em;
text-indent: 0em;
}

.afmh  {
display: block;
font-size: medium;
text-align: center;
font-style: italic;
text-indent: 0em;
}

.afmtx  {
display: block;
margin-top: 0em;
margin-bottom: 0em;
font-size: x-small;
text-align: left;
margin-left: 1em;
text-indent: 1em;
}

.afmtx1  {
display: block;
font-size: x-small;
text-align: justify;
margin-top: 0em;
margin-bottom: 0em;
text-indent: 0em;
}

.fmtx  {
display: block;
font-size: x-small;
text-align: left;
text-indent: 0em;
margin-left: 1em;
}

.fmtx1  {
display: block;
font-size: small;
text-align: justify;
text-indent: 0em;
margin-left: 1em;
margin-right: 1em;
margin-bottom: 1em;
margin-top: 1em;
}

.fmepi  {
display: block;
font-size: x-small;
text-align: left;
text-indent: 1em;
margin-left: 8em;
margin-right: 2em;
}

.fmepiv  {
display: block;
font-size: x-small;
text-align: left;
text-indent: 1em;
margin-left: 8em;
margin-right: 2em;
}

.fmepivc  {
display: block;
font-size: x-small;
text-align: center;
text-indent: 1em;
margin-left: 8em;
margin-right: 2em;
}

.fmeps  {
display: block;
font-size: small; 
text-align: right;
margin-top: 1em;
text-indent: 0em;
}

.h1  {
display: block;
font-size: large;
font-weight: bold;
text-align: center;
text-indent: 0em;
margin-top: 1em;
margin-bottom: 1em;
}

.h2  {
display: block;
font-size: medium;
font-weight: bold;
text-align: center;
text-indent: 0em;
margin-top: 1em;
margin-bottom: 1em;
font-family: sans-serif;
}

.h3  {
display: block;
font-size: small;
font-weight: bold;
text-align: center;
text-indent: 0em;
margin-top: 0em;
margin-bottom: 1em;
}

.h4  {
display: block;
font-size: small;
font-weight: bold; 
text-align: center;
margin-top: 2em;
margin-bottom: 1em;
text-indent: 0em;
}

.h5  {
display: block;
font-size: small; 
text-align: center;
margin-top: 2em;
margin-bottom: 1em;
text-indent: 0em;
}

.h6  {
display: block;
font-size: small; 
font-style: italic;
text-align: left;
margin-top: 2em;
margin-bottom: 1em;
text-indent: 0em;
}

.volt  {
display: block;
font-size: x-large;
text-align: center;
text-indent: 0em;
}

.bkt  {
display: block;
font-size: x-large;
text-align: center;
text-indent: 0em;
}

.tda {
display: block;
font-size: small; 
font-style: italic;
text-align: right;
margin-right: 2em;
text-indent: 0em;
}


.ext  {
display: block;
font-size: small;
text-align: justify;
margin-right: 2em;
margin-left: 2em;
text-indent: 0em;
margin-top: 0em;
margin-Bottom: 0em;
}

.exh  {
display: block;
font-size: small;
text-align: justify;
margin-right: 2em;
margin-left: 2em;
text-indent: 1em;
margin-top: 0em;
margin-Bottom: 0em;
}

.extv  {
display: block;
font-size: small;
text-align: center;
margin-top: 1em;
margin-Bottom: 2em;
}

.extvc  {
display: block;
font-size: small;
text-align: left;
margin-top: 0em;
margin-bottom: 0em;
text-indent: 0em;
font-family: monospace;
}

.extsl  {
display: block;
font-size: x-small;
text-align: left;
text-indent: 2em;
margin-left: 2em;
margin-right: 2em;
}


.exthl  {
display: block;
font-size: x-small;
text-align: left;
text-indent: 1em;
margin-left: 1em;
margin-right: 1em;
margin-top: 1em;
margin-bottom: 1em;
}

.extws  {
display: block;
font-size: x-small;
text-align: left;
text-indent: 1em;
margin-left: 1em;
margin-right: 1em;
margin-top: 1em;
margin-bottom: 1em;
}

.ins {
display: block;
font-size: x-small;
text-align: left;
text-indent: 1em;
margin-left: 1em;
margin-right: 1em;
margin-top: 1em;
margin-bottom: 1em;
}

.tel  {
display: block;
font-size: x-small;
text-align: justify;
font-family: monospace;
margin-left: 1em;
margin-right: 1em;
text-indent: 0em;
}

.tepi  {
display: block;
font-size: small;
text-align: left;
margin-left: 2em;
margin-right: 2em;
margin-top: 1em;
text-indent: 0em;
font-family: sans-serif;
}

.teps  {
display: block;
font-size: small;
text-align: right;
margin-right: 2em;
margin-bottom: 1em;
text-indent: 0em;
font-family: sans-serif;
}

.tepiv  {
display: block;
display: block;
font-size: x-small;
text-align: left;
margin-left: 8em;
margin-right: 2em;
text-indent: 0em;
}

.tepivc  {
display: block;
font-size: x-small;
text-align: left;
text-indent: 0em;
}

.extl  {
display: block;
text-align: justify;
text-indent: 1em;
margin-left: 1em;
margin-right: 1em;
}

.lda  {
display: block;
font-size: small;
font-style: italic;
text-align: right;
text-indent: 1em;
}

.lps  {
display: block;
font-size: small;
font-style: italic;
text-align: justify;
text-indent: 0em;
margin-left: 1em;
margin-right: 1em;
}

.lsa  {
display: block;
font-style: italic;
font-size: small;
text-align: right;
margin-left: 0em;
margin-bottom: 1em;
margin-top: 1em;
text-indent: 0em;
}

.lsg  {
font-style: italic;
font-size: small;
text-align: left;
margin-bottom: 1em;
text-indent: 1em;
}

.ltx  {
display: block;
font-style: italic;
font-size: small;
text-align: left;
text-indent: 1em;
}

.ladd  {
text-align: right;
text-indent: 0em;
margin-top: 3em;
margin-bottom: 2em;
margin-left: 0em;
margin-right: 2em;
}

.sp {
display: block;
display: block;
font-size: x-small;
text-align: left;
text-indent: 1em;
margin-left: 1em;
margin-right: 1em;
margin-top: 1em;
margin-bottom: 1em;
}

.sph  {
display: block;
font-size: large;
text-align: center;
text-indent: 0em;
}

.sphs  {
display: block;
font-size: medium;
text-align: center;
text-indent: 0em;
}

.sd  {
display: block;
font-size: small;
text-align: justify;
font-style: italic;
text-indent: 1em;
}

.spk  {
display: block;
font-size: small;
text-align: center;
margin-top: 1em;
text-indent: 0em;
}

.dp  {
display: block;
font-size: small;
margin-left: 1em;
text-indent: 0em;
margin-right: 1em;
}

.lh  {
display: block;
font-size: small;
margin-left: 1em;
margin-top: 1em;
font-style: italic;
text-indent: 0em;
}

.nl  {
font-size: small;
margin-left: 2em;
text-indent: -1em;
margin-top: 1em;
}

.nsl  {
display: block;
font-size: small;
margin-left: 2em;
text-indent: 0em;
}

.al  {
display: block;
font-size: small;
margin-left: 1em;
text-indent: 0em;
}

.asl  {
display: block;
font-size: small;
margin-left: 2em;
text-indent: 0em;
}

.np  {
display: block;
font-size: small;
text-indent: 1em;
margin-left: 1em;
}

.bl  {
display: block;
font-size: small;
margin-left: 1em;
text-indent: 0em;
}

.bsl  {
display: block;
font-size: small;
margin-left: 2em;
text-indent: 0em;
}

.bp  {
display: block;
font-size: small;
text-indent: 1em;
margin-left: 1em;
}

.ul  {
display: block;
font-size: small;
margin-left: 1em;
text-indent: -1em;
margin-top: 0em;
margin-Bottom: 0em;
font-family: sans-serif;
}

.ck  {
display: block;
margin-right: 6em;
font-size: x-small;
text-align: right;
margin-bottom: 1em;
text-indent: 0em;
}

.box  {
 border: solid;
}

.btx  {
display: block;
font-size: small;
text-indent: 1em;
margin-left: 1em;
}

.btx1  {
display: block;
font-size: small;
margin-left: 1em;
text-indent: -1em;
margin-top: 0em;
margin-Bottom: 0em;
font-family: sans-serif;
}

.bh  {
display: block;
font-size: medium;
text-align: center;
text-indent: 0em;
}

.bsh  {
display: block;
font-size: small;
text-align: center;
text-indent: 0em;
margin-top: 1em;
}

.bh1  {
display: block;
font-size: medium; 
font-weight: bold; 
text-align: center;
margin-top: 2em;
margin-bottom: 1em;
text-indent: 0em;
}

.bh2  {
display: block;
font-size: medium; 
text-align: center;
margin-top: 2em;
margin-bottom: 1em;
text-indent: 0em;
}

.bh3  {
display: block;
font-size: medium; 
font-style: italic; 
text-align: left;
margin-top: 2em;
margin-bottom: 1em;
text-indent: 0em;
}

.bh4  {
display: block;
font-size: small;
font-weight: bold; 
text-align: center;
margin-top: 2em;
margin-bottom: 1em;
text-indent: 0em;
}

.bh5  {
display: block;
font-size: small; 
text-align: center;
margin-top: 2em;
margin-bottom: 1em;
text-indent: 0em;
}

.bh6  {
display: block;
font-size: small; 
font-style: italic;
text-align: left;
margin-top: 2em;
margin-bottom: 1em;
text-indent: 0em;
}

.bepi  {
display: block;
font-size: small;
text-align: left;
margin-left: 8em;
margin-right: 2em;
text-indent: 0em;
}

.bepiv  {
display: block;
font-size: small;
text-align: left;
margin-left: 8em;
margin-right: 2em;
text-indent: 0em;
}

.bepivc  {
display: block;
font-size: small;
text-align: center;
text-indent: 0em;
}

.beps  {
display: block;
font-size: small;
text-align: right;
font-style: italic;
margin-right: 1em;
margin-bottom: 1em;
text-indent: 0em;
}

.bnl  {
display: block;
font-size: small;
margin-left: 1em;
text-indent: 0em;
}

.bbl  {
display: block;
font-size: small;
margin-left: 1em;
text-indent: 0em;
}

.bul  {
display: block;
font-size: small;
margin-left: 1em;
text-indent: 0em;
}

.bext  {
display: block;
font-size: x-small;
text-align: justify;
margin-left: 1em;
margin-right: 1em;
text-indent: 1em;
margin-top: 1em;
margin-bottom: 1em;
}

.bextv  {
display: block;
font-size: x-small;
text-align: left;
margin-left: 2em;
text-indent: 0em;
}

.bsn  {
display: block;
font-size: xx-small;
text-align: justify;
margin-top: 1em;
text-indent: 0em;
}

.bfn  {
display: block;
font-size: xx-small;
text-align: justify;
margin-top: 1em;
text-indent: 0em;
}

.sbtx  {
display: block;
font-size: small;
text-indent: 1em;
margin-left: 1em;
}

.sbtx1  {
display: block;
font-size: small;
margin-left: 1em;
text-indent: 0em;
}

.sbh  {
display: block;
font-size: medium;
text-align: center;
}

.sbsh  {
display: block;
font-size: small;
text-align: center;
text-indent: 0em;
}

.sbh1  {
display: block;
font-size: medium; 
font-weight: bold; 
text-align: center;
margin-top: 2em;
margin-bottom: 1em;
text-indent: 0em;
}

.sbh2  {
display: block;
font-size: medium; 
text-align: center;
margin-top: 2em;
margin-bottom: 1em;
text-indent: 0em;
}

.sbh3  {
display: block;
font-size: medium; 
font-style: italic; 
text-align: left;
margin-top: 2em;
margin-bottom: 1em;
text-indent: 0em;
}

.sbh4  {
display: block;
font-size: small;
font-weight: bold; 
text-align: center;
margin-top: 2em;
margin-bottom: 1em;
text-indent: 0em;
}

.sbh5  {
display: block;
font-size: small; 
text-align: center;
margin-top: 2em;
margin-bottom: 1em;
text-indent: 0em;
}

.sbh6  {
display: block;
font-size: small; 
font-style: italic;
text-align: left;
margin-top: 2em;
margin-bottom: 1em;
text-indent: 0em;
}

.sbepi  {
display: block;
font-size: small;
text-align: left;
margin-left: 8em;
margin-right: 2em;
text-indent: 0em;
}

.sbepiv  {
display: block;
font-size: small;
text-align: left;
margin-left: 8em;
margin-right: 2em;
text-indent: 0em;
}

.sbepivc  {
display: block;
font-size: small;
text-align: left;
text-indent: 0em;
}

.sbeps  {
display: block;
font-size: small;
text-align: right;
font-style: italic;
margin-right: 2em;
margin-bottom: 1em;
text-indent: 0em;
}

.sbnl  {
display: block;
font-size: small;
margin-left: 1em;
text-indent: 0em;
}

.sbbl  {
display: block;
font-size: small;
margin-left: 1em;
text-indent: 0em;
}

.sbul  {
display: block;
font-size: small;
margin-left: 1em;
text-indent: 0em;
}

.sbext  {
display: block;
text-align: justify;
margin-left: 2em;
margin-right: 2em;
text-indent: 0em;
}

.sbextv  {
display: block;
font-size: xx-small;
text-align: justify;
text-indent: 0em;
}

.sbfn  {
display: block;
font-size: xx-small;
text-indent: 1em;
text-align: justify;
margin-left: 1em;
margin-top: 1em;
border: medium;
}

.sbsn  {
display: block;
font-size: xx-small;
text-indent: 1em;
text-align: justify;
margin-left: 1em;
margin-top: 1em;
border: medium;
}

.xref  {
display: block;
font-size: small;
text-align: justify;
text-indent: 1em;
}

.cap  {
display: block;
font-size: x-small;
font-style: italic;
text-align: left;
margin-top: 1em;
margin-bottom: 1em;
text-indent: 0em;
}

.is  {
display: block;
font-size: xx-small;
text-align: right;
font-style: italic;
text-indent: 0em;
}

.ilc {
display: block;
font-size: x-small;
text-align: justify;
text-indent: 1em;
}

.ill {
display: block;
font-size: small;
text-align: center;
text-indent: 0em;
}

.ilc1 {
display: block;
font-size: x-small;
text-align: justify;
text-indent: 0em;
}

.perm {
display: block;
font-size: x-small;
text-align: justify;
text-indent: 1em;
}

.perm1 {
display: block;
font-size: x-small;
text-align: justify;
text-indent: 0em;
}

.aph  {
display: block;
font-size: large;
text-align: center;
text-indent: 0em;
}

.apsh  {
display: block;
font-size: medium;
text-align: center;
text-indent: 0em;
}

.aph1  {
display: block;
font-size: medium; 
font-weight: bold; 
text-align: center;
margin-top: 2em;
margin-bottom: 1em;
text-indent: 0em;
}

.aph2  {
display: block;
font-size: medium; 
text-align: center;
margin-top: 2em;
margin-bottom: 1em;
text-indent: 0em;
}

.aph3  {
display: block;
font-size: medium; 
font-style: italic; 
text-align: left;
margin-top: 2em;
margin-bottom: 1em;
text-indent: 0em;
}

.aph4  {
display: block;
font-size: small;
font-weight: bold; 
text-align: center;
margin-top: 2em;
margin-bottom: 1em;
text-indent: 0em;
}

.aph5  {
display: block;
font-size: small; 
text-align: center;
margin-top: 2em;
margin-bottom: 1em;
text-indent: 0em;
}

.aph6  {
display: block;
font-size: small; 
font-style: italic;
text-align: left;
margin-top: 2em;
margin-bottom: 1em;
text-indent: 0em;
}

.aptx  {
display: block;
font-size: small;
text-align: justify;
text-indent: 1em;
}

.aptx1  {
display: block;
font-size: small;
text-align: justify;
text-indent: 0em;
}

.apnl  {
display: block;
font-size: small;
text-align: left;
text-indent: 1em;
}

.apul  {
display: block;
font-size: small;
text-align: left;
text-indent: 1em;
}

.apbl  {
display: block;
font-size: small;
text-align: left;
text-indent: 1em;
}

.apfn  {
display: block;
font-size: small;
text-align: justify;
text-indent: 1em;
}

.apsn  {
display: block;
font-size: small;
text-align: justify;
text-indent: 1em;
}

.bmh  {
display: block;
font-family: sans-serif;
font-size: large;
text-align: center;
margin-top: 1em;
margin-bottom: 2em;
font-weight: bold;
}

.bmtx  {
display: block;
font-size: x-small;
text-align: justify;
text-indent: 1em;
margin-left: 1em;

}

.bmtx1  {
display: block;
font-size: x-small;
font-family: sans-serif;
text-align: justify;
text-indent: 0em;
}

.bmsh  {
display: block;
font-size: medium;
font-weight: bold;
text-align: left;
margin-bottom: 0em;
font-style: italic;
font-family: sans-serif;
text-indent: 0em;
}

.abmh  {
display: block;
font-size: medium;
text-align: center;
font-style: italic;
text-indent: 0em;
}

.abmtx  {
display: block;
font-size: x-small;
text-align: justify;
text-indent: 1em;
}

.abmtx1  {
display: block;
font-size: x-small;
text-align: justify;
text-indent: 0em;
}



.ata  {
display: block;
font-size: small;
font-weight: bold;
text-align: center;
}

.glt  {
display: block;
font-size: small;
text-align: left;
margin-right: 1em;
font-weight: bold;
text-indent: 0em;
}

.gltx  {
display: block;
font-size: small;
text-align: left;
text-indent: -1em;
margin-left: 1em;
}

.add  {
display: block;
font-size: small;
text-align: left;
text-indent: 0em;
}

.ntx  {
display: block;
font-size: small;
text-align: justify;
margin-top: 0em;
margin-bottom: 0em;
margin-left: 1em;
text-indent: -1em;
}

.kp  {
display: block;
font-size: x-small;
text-align: justify;
margin-left: 1em;
text-indent: 0em;
}

.n1  {
display: block;
font-size: small;
text-align: center;
font-weight: bold;
text-indent: 0em;
margin-top: 1em;
margin-bottom: 1em;
}

.n2  {
display: block;
font-size: small;
text-align: center;
font-style: italic;
text-indent: 0em;
}

.n3  {
display: block;
font-size: small;
text-align: left;
text-indent: 0em;
}

.bibtx  {
display: block;
font-size: x-small;
text-align: justify;
text-indent: -1em;
margin-left: 1em;
}

.b1  {
display: block;
font-size: small;
text-align: center;
font-weight: bold;
text-indent: 0em;
}

.b2  {
display: block;
font-size: small;
text-align: center;
font-style: italic;
text-indent: 0em;
}

.b3  {
display: block;
font-size: small;
text-align: left;
text-indent: 0em;
}

.intx  {
display: block;
font-size: x-small;
text-align: justify;
margin-left: 1em;
text-indent: 0em;
}

.in1  {
display: block;
font-size: small;
text-align: center;
font-weight: bold; 
margin-top: 2em;
margin-bottom: 1em;
text-indent: 0em;
}

.ine  {
display: block;
font-size: x-small;
text-align: left;
margin-left: 2em;
text-indent: -1em;
}

.inse  {
display: block;
font-size: x-small;
text-align: left;
margin-left: 3em;
margin-left: -1em;
text-indent: 0em;
}

.insse  {
display: block;
font-size: xx-small;
text-align: left;
margin-left: 4em;
margin-left: -1em;
text-indent: 0em;
}

.acmh  {
display: block;
font-size: medium;
text-align: center;
margin-top: 0em;
margin-bottom: 2em;
text-indent: 0em;
font-weight: bold;
}

.acsh  {
display: block;
font-size: x-small;
text-align: center;
margin-top: 2em;
margin-bottom: 1em;
text-indent: 0em;
font-weight: bold;
}

.acl  {
display: block;
font-size: small;
text-align: center;
text-indent: 0em;
margin-left: 0em;
margin-top: 0em;
margin-bottom: 1em;
}

.bobt  {
display: block;
font-size: large;
text-align: center;
text-indent: 0em;
}

.bobst  {
display: block;
font-size: medium;
text-align: center;
text-indent: 0em;
}

.bobh1  {
display: block;
font-size: medium; 
font-weight: bold; 
text-align: center;
margin-top: 2em;
margin-bottom: 1em;
text-indent: 0em;
}

.bobh2  {
display: block;
font-size: medium; 
text-align: center;
margin-top: 2em;
margin-bottom: 1em;
text-indent: 0em;
}

.bobh3  {
display: block;
font-size: medium; 
font-style: italic; 
text-align: left;
margin-top: 2em;
margin-bottom: 1em;
text-indent: 0em;
}

.bobtx  {
display: block;
font-size: small;
text-align: justify;
text-indent: 1em;
}

.bobtx1  {
display: block;
font-size: small;
text-align: justify;
text-indent: 0em;
}

.bobqh  {
display: block;
font-size: medium;
text-align: center;
text-indent: 0em;
}

.bobq {
display: block;
font-size: x-small;
text-align: left;
text-indent: 1em;
margin-left: 1em;
margin-right: 1em;
margin-top: 1em;
margin-bottom: 1em;
}

.bobq1 {
display: block;
font-size: x-small;
text-align: left;
margin-left: 1em;
margin-right: 1em;
margin-top: 1em;
margin-bottom: 1em;
text-indent: 0em;
}

.bobqs {
display: block;
font-size: small;
text-align: right;
font-style: italic;
margin-right: 2em;
margin-bottom: 1em;
text-indent: 0em;
}



.crt  {
display: block;
font-size: x-small;
text-align: center;
margin-bottom: 1em;
text-indent: 0em;
}

.cfmh  {
display: block;
font-size: small;
margin-left: 0em;
text-align: left;
text-indent: 0em;
margin-bottom: 0em;
margin-top: 0em;
font-style: italic;
}

.cpn  {
display: block;
font-size: small;
text-align: center;
margin-top: 1em;
margin-bottom: 1em;
text-indent: 0em;
}

.cpt  {
display: block;
font-size: medium;
text-align: left;
text-indent: 0em;
}

.ccn  {
display: block;
font-size: small;
text-align: left;
margin-left: 0em;
text-indent: 0em;
margin-bottom: 0em;
margin-top: 0em;
}

.cct  {
font-size: small;
text-align: left;
text-indent: 0em;
margin-left: 2em;
margin-top: 0em;
margin-bottom: 0em;
}

.ch1  {
font-size: small;
text-align: left;
margin-left: 1em;
text-indent: 0em;
}

.cbmh  {
font-size: small;
text-align: left;
margin-left: 0em;
text-indent: 0em;
margin-bottom: 0em;
margin-top: 0em;
font-style: italic;
}

.vt  {
font-size: medium;
text-align: center;
margin-bottom: 1em;
text-indent: 0em;
}

.vst  {
font-size: medium;
text-align: center;
text-indent: 0em;
}

.vepi  {
font-size: x-small;
text-align: left;
margin-left: 8em;
margin-right: 2em;
text-indent: 0em;
}

.vepiv  {
font-size: x-small;
text-align: left;
margin-left: 8em;
margin-right: 2em;
text-indent: 0em;
}

.vepivc  {
font-size: x-small;
text-align: center;
text-indent: 0em;
}

.veps  {
font-size: x-small;
text-align: right;
font-style: italic;
margin-right: 2em;
margin-bottom: 1em;
text-indent: 0em;
}

.vda  {
font-size: x-small;
text-align: right;
font-style: italic;
text-indent: 0em;
}

.vded  {
font-size: x-small;
text-align: center;
font-style: italic;
text-indent: 0em;
}


.vhn  {
font-size: small;
text-align: left;
font-weight: bold;
text-indent: 0em;
}

.vh1  {
font-size: small;
text-align: center;
font-weight: bold;
text-indent: 0em;
}

.vh2  {
font-size: small;
text-align: center;
text-indent: 0em;
}

.vh3  {
font-size: small;
text-align: center;
font-style: italic;
text-indent: 0em;
}

.vtx  {
font-size: small;
font-style: italic;
text-align: left;
margin-top: 1em;
margin-bottom: 1em;
margin-left: 2em;
margin-right: 1em;
text-indent: 0em;
}

.vtxc  {
font-size: small;
text-align: center;
margin-left: 2em;
text-indent: 0em;
}

.vrtx  {
font-size: small;