
.imgepub {
	max-width: 100%;
}

.end  {
font-size: normal;
text-align: left;
margin-top: 6px;
margin-bottom: 6px;
}

.rightAligned {
   text-align: right;
}

.leftAligned {
   text-align: left;
}

.centerAligned {
   text-align: center;
}

.tit  {
font-size: x-large;
text-align: center;
font-weight: bold;
}

.stit  {
font-size: large;
text-align: center;
}

.au  {
font-size: medium;
text-align: center;
}

.con  {
font-size: medium;
text-align: center;
}

.htit  {
font-size: large;
text-align: center;
font-weight: bold;
}

.imp  {
font-size: normal;
text-align: center;
}

.ded  {
font-size: normal;
text-align: center;
font-style: italic;
}

.dedau  {
font-size: small;
text-align: right;
margin-right: 1em;
}

.ser  {
font-size: medium;
text-align: center;
}

.rl  {
font-size: normal;
text-align: center;
font-style: italic;
}

.tran  {
font-size: normal;
text-align: center;
}

.pub  {
font-size: normal;
text-align: center;
}

.cit  {
font-size: small;
text-align: center;
}

.epi
  {
display: block;
font-size: small;
text-align: justify;
margin-left: 8em;
margin-right: 2em;
}

.eps  {
font-size: normal;
text-align: right;
font-style: italic;
margin-bottom: 18px;
margin-right: 2em;
}

.epiv  {
display: block;
font-size: small;
text-align: justify;
margin-left: 8px;
margin-right: 2em;
margin-top: 18px;
}

.epivc  {
display: block;
font-size: small;
text-align: center;
margin-left: 8em;
margin-right: 2em;
}

.pn  {
font-size: large;
text-align: center;
}

.pt  {
font-size: x-large;
text-align: center;
}

.pst  {
font-size: large;
text-align: center;
}

.pepi  {
font-size: small;
text-align: justify;
margin-left: 8em;
margin-right: 2em;
}

.peps  {
font-size: small;
text-align: right;
font-style: italic;
margin-bottom: 18px;
margin-right: 2em;
}

.pepiv  {
display: block;
font-size: small;
text-align: justify;
margin-left: 8em;
margin-right: 2em;
}

.pepivc  {
display: block;
font-size: small;
text-align: center;
margin-left: 8em;
margin-right: 2em;
}

.potx  {
font-size: normal;
text-align: justify;
text-indent: 1em;
}

.potx1  {
font-size: normal;
text-align: justify;
}

.cn  {
font-size: medium;
text-align: center;
margin-bottom: 18px;
}






























.ct  {
font-size: large;
text-align: center;
margin-bottom: 18px;
margin-top: 6px;
}

.cst  {
font-size: medium;
text-align: center;
margin-bottom: 18px;
margin-top: 6px;
}

.ctBT-T  {
font-size: medium;
text-align: center;
margin-bottom: 18px;
margin-top: 6px;
}

.cstBT-T  {
font-size: normal;
text-align: center;
margin-bottom: 18px;
margin-top: 6px;
}

.ca  {
font-size: medium;
text-align: center;
font-style: italic;
}

.da  {
font-size: normal;
text-align: right;
font-style: italic;
margin-right: 1em;
}

.cepi  {
font-size: small;
text-align: justify;
margin-left: 8em;
margin-right: 2em;
}

.ceps  {
font-size: small;
text-align: right;
font-style: italic;
margin-right: 2em;
margin-bottom: 18px;
}

.cepiv  {
display: block;
font-size: small;
text-align: justify;
margin-left: 8em;
margin-right: 2em;
margin-top: 18px;
}

.cepivc  {
display: block;
font-size: small;
text-align: center;
margin-left: 8em;
margin-right: 2em;
}

.cotx  {
display: block;
font-size: normal;
text-align: justify;
text-indent: 1em;
}

.cotx1  {
display: block;
font-size: normal;
text-align: justify;
}


.tx  {
font-size: normal;
text-align: justify;
text-indent: 1em;
margin-top: 6px;
margin-bottom: 6px;
}

.tx1  {
font-size: normal;
text-align: justify;
text-indent: 0em;
margin-top: 6px;
margin-bottom: 6px;
}

.chabox  {
font-size: normal;
text-align: justify;
 margin-top: 1em;
 margin-left: 20px;
 margin-right: 20px;
 border-width: 1;
 border: solid;
 padding: 1em;
 margin-bottom: 1em;
}

.chaboxg  {
font-size: normal;
text-align: justify;
background-color: #DDDDDD;
 margin-top: 1em;
 margin-left: 20px;
 margin-right: 20px;
 border-width: 1;
 border: solid;
 padding: 1em;
 margin-bottom: 1em;
}

.atx  {
font-size: normal;
text-align: justify;
text-indent: 1em;
margin-top: 6px;
margin-bottom: 6px;
margin-left: 3em;
}

.atx1  {
font-size: normal;
text-align: justify;
margin-top: 6px;
margin-bottom: 6px;
margin-left: 3em;
}

.atxg  {
font-size: normal;
text-align: justify;
text-indent: 1em;
margin-top: 6px;
margin-bottom: 6px;
margin-left: 3em;
background-color: #DDDDDD;
}

.atx1g  {
font-size: normal;
text-align: justify;
margin-top: 6px;
margin-bottom: 6px;
margin-left: 3em;
background-color: #DDDDDD;
}



































.com  {
font-family: monospace;
font-size: small;
text-align: left;
text-indent: 1em;
}

.com1  {
font-family: monospace;
font-size: small;
text-align: left;
}

.nar  {
font-size: normal;
text-align: justify;
text-indent: 1em;
font-style: italic;
}

.nar1  {
font-size: normal;
text-align: justify;
font-style: italic;
}

.dia  {
font-size: normal;
text-align : justify;
margin-left: 2em;
text-indent: -1em;
}

.fn  {
font-size: normal;
text-align: justify;
text-indent: 1em;
}

.fntag  {
font-size: normal;
}

.sda  {
font-size: small;
text-align: right;
}

.sloc  {
font-size: small;
text-align: right;
}


.ls1  {
display: block;
margin-bottom: 1em;
}

.ls2  {
display: block;
margin-bottom: 2em;
}

.ls3  {
display: block;
margin-bottom: 3em;
}

.orn  {
display: block;
margin-bottom: 1em;
}

.cb  {
 page-break-before: always;
}

.pb  {
 page-break-before: always;
}















.afmtx  {
font-size: normal;
text-align: justify;
text-indent: 1em;
margin-top: 6px;
margin-bottom: 6px;
margin-left: 3em;
}

.afmtx1  {
font-size: normal;
text-align: justify;
margin-top: 6px;
margin-bottom: 6px;
margin-left: 3em;
}

.afmtxg  {
font-size: normal;
text-align: justify;
text-indent: 1em;
margin-top: 6px;
margin-bottom: 6px;
margin-left: 3em;
background-color: #DDDDDD;
}

.afmtx1g  {
font-size: normal;
text-align: justify;
margin-top: 6px;
margin-bottom: 6px;
margin-left: 3em;
background-color: #DDDDDD;
}

.fmh  {
font-size: large;
text-align: center;
}

.fmsh  {
font-size: medium;
text-align: center;
}

.fmtxg  {
font-size: normal;
text-align: justify;
text-indent: 1em;
}

.fmtx1g  {
font-size: normal;
text-align: justify;
}

.fmhbox  {
font-size: normal;
text-align: justify;
text-indent: 1em;
 margin-top: 1em;
 margin-left: 20px;
 margin-right: 20px;
 border-width: 1;
 border: solid;
 padding: 1em;
 margin-bottom: 1em;
}

.fmhboxg  {
font-size: normal;
text-align: justify;
text-indent: 1em;
background-color: #DDDDDD;
 margin-top: 1em;
 margin-left: 20px;
 margin-right: 20px;
 border-width: 1;   
 border: solid;
 padding: 1em;
 margin-bottom: 1em;
}

.fmtx  {
font-size: normal;
text-align: justify;
text-indent: 1em;
margin-top: 6px;
margin-bottom: 6px;
}

.fmtx1  {
font-size: normal;
text-align: justify;
margin-top: 6px;
margin-bottom: 6px;
}

.fmhBT-T  {
font-size: large;
text-align: center;
}

.fmshBT-T  {
font-size: medium;
text-align: center;
}

.fmhT  {
font-size: large;
text-align: center;
}

.fmshT  {
font-size: medium;
text-align: center;
}

.fmah  {
font-size: medium; 
font-style: italic; 
text-align: center;
}

.fmh1  {
font-size: medium;
font-weight: bold; 
text-align: center;
margin-top: 2em;
margin-bottom: 1em;
}

.fmh2  {
font-size: medium; 
text-align: center;
margin-top: 2em;
margin-bottom: 1em;
}

.fmh3  {
font-size: medium; 
font-style: italic;
text-align: left;
margin-top: 2em;
margin-bottom: 1em;
}

.fmh4  {
font-size: normal;
font-weight: bold; 
text-align: center;
margin-top: 2em;
margin-bottom: 1em;
}

.fmh5  {
font-size: normal; 
text-align: center;
margin-top: 2em;
margin-bottom: 1em;
}

.fmh6  {
font-size: normal; 
font-style: italic;
text-align: left;
margin-top: 2em;
margin-bottom: 1em;
}

.afmh  {
font-size: medium;
text-align: center;
font-style: italic;
}



.fmepi  {
display: block;
font-size: small;
text-align: justify;
text-indent: 1em;
margin-left: 8em;
margin-right: 2em;
margin-top: 6px;
margin-bottom: 6px;
}

.fmepiv  {
display: block;
font-size: small;
text-align: justify;
text-indent: 1em;
margin-left: 8em;
margin-right: 2em;
margin-top: 6px;
margin-bottom: 6px;
}

.fmepivc  {
display: block;
font-size: small;
text-align: center;
text-indent: 1em;
margin-left: 8em;
margin-right: 2em;
margin-top: 6px;
margin-bottom: 6px;
}

.fmeps  {
font-size: normal; 
font-style: italic;
text-align: right;
margin-right: 2em;
margin-bottom: 12em;
margin-top: 6px;
margin-bottom: 6px;
}



















.h1  {
font-size: medium; 
font-weight: bold; 
text-align: center;
margin-top: 2em;
margin-bottom: 18px;
}

.h2  {
font-size: normal; 
text-align: center;
margin-top: 2em;
margin-bottom: 18px;
}

.h3  {
font-size: medium; 
font-style: italic; 
text-align: left;
margin-top: 2em;
margin-bottom: 1em;
}

.h4  {
font-size: normal;
font-weight: bold; 
text-align: center;
margin-top: 2em;
margin-bottom: 1em;
}

.h5  {
font-size: normal; 
text-align: center;
margin-top: 2em;
margin-bottom: 1em;
}

.h6  {
font-size: normal; 
font-style: italic;
text-align: left;
margin-top: 2em;
margin-bottom: 1em;
}

.volt  {
font-size: x-large;
text-align: center;
}

.bkt  {
font-size: x-large;
text-align: center;
}

.tda {
font-size: normal; 
font-style: italic;
text-align: right;
margin-right: 2em;
}


.ext  {
display: block;
font-size: small;
text-align: left;
text-indent: 1em;
margin-left: 1em;
margin-right: 1em;
margin-top: 1em;
margin-bottom: 1em;
}

.exh  {
font-size: normal;
text-align: left;
margin-top: 1em;
}

.extv  {
font-size: small;
text-align: left;
margin-left: 1em;
margin-right: 1em;
}

.extvc  {
font-size: small;
text-align: center;
}

.extsl  {
display: block;
font-size: small;
text-align: left;
text-indent: 2em;
margin-left: 2em;
margin-right: 2em;
}


.exthl  {
display: block;
font-size: small;
text-align: left;
text-indent: 1em;
margin-left: 1em;
margin-right: 1em;
margin-top: 1em;
margin-bottom: 1em;
}

.extws  {
display: block;
font-size: small;
text-align: left;
text-indent: 1em;
margin-left: 1em;
margin-right: 1em;
margin-top: 1em;
margin-bottom: 1em;
}

.ins {
display: block;
font-size: small;
text-align: left;
text-indent: 1em;
margin-left: 1em;
margin-right: 1em;
margin-top: 1em;
margin-bottom: 1em;
}

.tel  {
font-size: small;
text-align: justify;
font-family: monospace;
margin-left: 1em;
margin-right: 1em;
}

.tepi  {
font-size: normal;
text-align: justify;
margin-left: 8em;
margin-right: 2em;
margin-top: 1em;
margin-bottom: 1em;
}

.teps  {
font-size: normal;
text-align: right;
font-style: italic;
margin-right: 2em;
margin-bottom: 1em;
}

.tepiv  {
display: block;
font-size: small;
text-align: justify;
margin-left: 8em;
margin-right: 2em;
}

.tepivc  {
display: block;
font-size: small;
text-align: center;
}

.extl  {
font-size: small;
text-align: justify;
text-indent: 1em;
margin-left: 1em;
margin-right: 1em;
}

.lda  {
font-size: small;
text-align: right;
text-indent: 1em;
font-style: italic;
}

.lps  {
font-size: small;
text-align: justify;
text-indent: 1em;
margin-left: 1em;
margin-right: 1em;
}

.lsa  {
font-size: small;
text-align: right;
text-indent: 1em;
}

.lsg  {
font-size: small;
text-align: right;
text-indent: 1em;
}

.ltx  {
font-size: small;
text-align: left;
text-indent: 1em;
margin-left: 1em;
margin-right: 1em;
}

.ladd  {
font-size: small;
text-align: right;
text-indent: 1em;
}

.sp {
display: block;
font-size: small;
text-align: left;
text-indent: 1em;
margin-left: 1em;
margin-right: 1em;
margin-top: 1em;
margin-bottom: 1em;
}

.sph  {
font-size: large;
text-align: center;
}

.sphs  {
font-size: medium;
text-align: center;
}

.sd  {
font-size: normal;
text-align: justify;
font-style: italic;
text-indent: 1em;
}

.spk  {
font-size: normal;
text-align: center;
margin-top: 1em;
}

.dp  {
font-size: normal;
margin-left: 1em;
}

.lh  {
font-size: normal;
margin-left: 1em;
margin-top: 1em;
font-style: italic;
}

.nl  {
font-size: normal;
margin-left: 1em;
}

.nsl  {
font-size: normal;
margin-left: 2em;
}

.al  {
font-size: normal;
margin-left: 1em;
}

.asl  {
font-size: normal;
margin-left: 2em;
}

.np  {
font-size: normal;
text-indent: 1em;
margin-left: 1em;
}

.bl  {
font-size: normal;
margin-left: 1em;
}

.bsl  {
font-size: normal;
margin-left: 2em;
}

.bp  {
font-size: normal;
text-indent: 1em;
margin-left: 1em;
}

.ul  {
font-size: normal;
margin-left: 1em;
}

.ck  {
font-size: normal;
margin-left: 1em;
}

.box {
 border: solid;
 margin-top: 1em;
 margin-left: 20px;
 margin-right: 20px;
 border-width: 1;
 border: solid;
 padding: 1em;
 margin-bottom: 1em;
}

.boxg  {
 border: solid;
 margin-top: 1em;
 margin-left: 20px;
 margin-right: 20px;
 background-color: #DDDDDD;
 border-width: 1;
 border: solid;
 padding: 1em;
 margin-bottom: 1em;
}

.boxCRT {
 border: solid;
 font-size: small;
 margin-top: 1em;
 margin-left: 20px;
 margin-right: 20px;
 border-width: 1;
 padding: 1em;
 margin-bottom: 1em;
}

.boxCRTg  {
 border: solid;
 font-size: small;
 margin-top: 1em;
 margin-left: 20px;
 margin-right: 20px;
 background-color: #DDDDDD;
 border-width: 1;
 padding: 1em;
 margin-bottom: 1em;
}

.btx  {
font-size: normal;
text-indent: 1em;
margin-left: 1em;
}

.btx1  {
font-size: normal;
margin-left: 1em;
}

.bh  {
font-size: medium;
text-align: center;
}

.bsh  {
font-size: normal;
text-align: center;
}

.bh1  {
font-size: medium; 
font-weight: bold; 
text-align: center;
margin-top: 2em;
margin-bottom: 1em;
}

.bh2  {
font-size: medium; 
text-align: center;
margin-top: 2em;
margin-bottom: 1em;
}

.bh3  {
font-size: medium; 
font-style: italic; 
text-align: left;
margin-top: 2em;
margin-bottom: 1em;
}

.bh4  {
font-size: normal;
font-weight: bold; 
text-align: center;
margin-top: 2em;
margin-bottom: 1em;
}

.bh5  {
font-size: normal; 
text-align: center;
margin-top: 2em;
margin-bottom: 1em;
}

.bh6  {
font-size: normal; 
font-style: italic;
text-align: left;
margin-top: 2em;
margin-bottom: 1em;
}

.bepi  {
font-size: normal;
text-align: justify;
margin-left: 8em;
margin-right: 2em;
}

.bepiv  {
font-size: normal;
text-align: justify;
margin-left: 8em;
margin-right: 2em;
}

.bepivc  {
font-size: normal;
text-align: center;
}

.beps  {
font-size: normal;
text-align: right;
font-style: italic;
margin-right: 1em;
margin-bottom: 1em;
}

.bnl  {
font-size: normal;
margin-left: 1em;
}

.bbl  {
font-size: normal;
margin-left: 1em;
}

.bul  {
font-size: normal;
margin-left: 1em;
}

.bext  {
font-size: small;
text-align: justify;
margin-left: 1em;
margin-right: 1em;
text-indent: 1em;
margin-top: 1em;
margin-bottom: 1em;
}

.bextv  {
font-size: small;
text-align: left;
margin-left: 2em;
}

.bsn  {
font-size: x-small;
text-align: justify;
margin-top: 1em;
}

.bfn  {
font-size: x-small;
text-align: justify;
margin-top: 1em;
}

.sbtx  {
font-size: normal;
text-indent: 1em;
margin-left: 1em;
}

.sbtx1  {
font-size: normal;
margin-left: 1em;
}

.sbh  {
font-size: medium;
text-align: center;
}

.sbsh  {
font-size: normal;
text-align: center;
}

.sbh1  {
font-size: medium; 
font-weight: bold; 
text-align: center;
margin-top: 2em;
margin-bottom: 1em;
}

.sbh2  {
font-size: medium; 
text-align: center;
margin-top: 2em;
margin-bottom: 1em;
}

.sbh3  {
font-size: medium; 
font-style: italic; 
text-align: left;
margin-top: 2em;
margin-bottom: 1em;
}

.sbh4  {
font-size: normal;
font-weight: bold; 
text-align: center;
margin-top: 2em;
margin-bottom: 1em;
}

.sbh5  {
font-size: normal; 
text-align: center;
margin-top: 2em;
margin-bottom: 1em;
}

.sbh6  {
font-size: normal; 
font-style: italic;
text-align: left;
margin-top: 2em;
margin-bottom: 1em;
}

.sbepi  {
font-size: normal;
text-align: justify;
margin-left: 8em;
margin-right: 2em;
}

.sbepiv  {
font-size: normal;
text-align: justify;
margin-left: 8em;
margin-right: 2em;
}

.sbepivc  {
font-size: normal;
text-align: center;
}

.sbeps  {
font-size: normal;
text-align: right;
font-style: italic;
margin-right: 2em;
margin-bottom: 1em;
}

.sbnl  {
font-size: normal;
margin-left: 1em;
}

.sbbl  {
font-size: normal;
margin-left: 1em;
}

.sbul  {
font-size: normal;
margin-left: 1em;
}

.sbext  {
font-size: small;
text-align: justify;
margin-left: 2em;
margin-right: 2em;
}

.sbextv  {
font-size: x-small;
text-align: justify;
}

.sbfn  {
font-size: x-small;
text-indent: 1em;
text-align: justify;
margin-left: 1em;
margin-top: 1em;
border: medium;
}

.sbsn  {
font-size: x-small;
text-indent: 1em;
text-align: justify;
margin-left: 1em;
margin-top: 1em;
border: medium;
}

.xref  {
font-size: normal;
text-align: justify;
text-indent: 1em;
}

.cap  {
font-size: small;
font-style: italic;
text-align: left;
margin-top: 1em;
margin-bottom: 1em;
}

.is  {
font-size: x-small;
text-align: right;
font-style: italic;
}

.ilc {
font-size: small;
text-align: justify;
text-indent: 1em;
}

.ilc1 {
font-size: small;
text-align: justify;
}

.perm {
font-size: small;
text-align: justify;
text-indent: 1em;
}

.perm1 {
font-size: small;
text-align: justify;
}
















.aph  {
font-size: large;
text-align: center;
}

.aphT  {
font-size: large;
text-align: center;
}

.aphBT-T  {
font-size: large;
text-align: center;
}

.apsh  {
font-size: medium;
text-align: center;
}

.apshT  {
font-size: medium;
text-align: center;
}

.apshBT-T  {
font-size: medium;
text-align: center;
}

.apt  {
font-size: normal;
text-align: left;
}

.aptxbox  {
font-size: normal;
text-align: justify;
text-indent: 1em;
 margin-top: 1em;
 margin-left: 20px;
 margin-right: 20px;
 border-width: 1;
 border: solid;
 padding: 1em;
 margin-bottom: 1em;
}

.aptxboxg  {
font-size: normal;
text-align: justify;
text-indent: 1em;
 margin-top: 1em;
 margin-left: 20px;
 margin-right: 20px;
 border-width: 1;
 border: solid;
 background-color: #DDDDDD;
 padding: 1em;
 margin-bottom: 1em;
}   

.aptx  {
font-size: normal;
text-align: justify;
text-indent: 1em;
}

.aptx1  {
font-size: normal;
text-align: justify;
}

.aptxg  {
font-size: normal;
text-align: justify;
text-indent: 1em;
background-color: #DDDDDD;
}

.aptxg1  {
font-size: normal;
text-align: justify;
background-color: #DDDDDD;
}

.aph1  {
font-size: medium; 
font-weight: bold; 
text-align: center;
margin-top: 2em;
margin-bottom: 1em;
}

.aph2  {
font-size: medium; 
text-align: center;
margin-top: 2em;
margin-bottom: 1em;
}

.aph3  {
font-size: medium; 
font-style: italic; 
text-align: left;
margin-top: 2em;
margin-bottom: 1em;
}

.aph4  {
font-size: normal;
font-weight: bold; 
text-align: center;
margin-top: 2em;
margin-bottom: 1em;
}

.aph5  {
font-size: normal; 
text-align: center;
margin-top: 2em;
margin-bottom: 1em;
}

.aph6  {
font-size: normal; 
font-style: italic;
text-align: left;
margin-top: 2em;
margin-bottom: 1em;
}






















.apnl  {
font-size: normal;
text-align: left;
text-indent: 1em;
}

.apul  {
font-size: normal;
text-align: left;
text-indent: 1em;
}

.apbl  {
font-size: normal;
text-align: left;
text-indent: 1em;
}

.apfn  {
font-size: normal;
text-align: justify;
text-indent: 1em;
}

.apsn  {
font-size: normal;
text-align: justify;
text-indent: 1em;
}
  




















.teaT  {
font-size: medium;
text-align: center;
margin-bottom: 20px;
}

.teasT  {
font-size: medium;
text-align: center;
margin-bottom: 20px;
}




.bmh  {
font-size: large;
text-align: center;
}

.bmsh  {
font-size: medium;
text-align: center;
}

.bmhBT-T  {
font-size: large;
text-align: center;
}

.bmshBT-T  {
font-size: large;
text-align: center;
}

.bmhT  {
font-size: medium;
text-align: center;
}

.bmshT  {
font-size: medium;
text-align: center;
}

.bmtx  {
display: block;
font-size: normal;
text-align: justify;
text-indent: 1em;
}

.bmhbox  {
display: block;
font-size: normal;
text-align: justify;
text-indent: 1em;
 margin-top: 1em;
 margin-left: 20px;
 margin-right: 20px;
 border-width: 1;
 border: solid;
 padding: 1em;
 margin-bottom: 1em;
}

.bmhboxg  {
display: block;
font-size: normal;
text-align: justify;
text-indent: 1em;
 margin-top: 1em;
 margin-left: 20px;
 margin-right: 20px;
 border-width: 1;
 border: solid;
 background-color: #DDDDDD;
 padding: 1em;
 margin-bottom: 1em;
}

.bmtx1  {
display: block;
font-size: normal;
text-align: justify;
margin-top: 6px;
margin-bottom: 6px;
}

.bmtxg  {
display: block;
font-size: normal;
text-align: justify;
text-indent: 1em;
}

.bmtx1g  {
display: block;
font-size: normal;
text-align: justify;
}

.abmh  {
font-size: medium;
text-align: center;
font-style: italic;
}

.abmtx  {
font-size: normal;
text-align: justify;
text-indent: 1em;
margin-top: 6px;
margin-bottom: 6px;
margin-left: 3em;
}

.abmtx1  {
font-size: normal;
text-align: justify;
margin-top: 6px;
margin-bottom: 6px;
margin-left: 3em;
}

.abmtxg  {
font-size: normal;
text-align: justify;
text-indent: 1em;
margin-top: 6px;
margin-bottom: 6px;
margin-left: 3em;
background-color: #DDDDDD;
}

.abmtx1g  {
font-size: normal;
text-align: justify;
margin-top: 6px;
margin-bottom: 6px;
margin-left: 3em;
background-color: #DDDDDD;
}

























.ata  {
font-size: normal;
text-align: left;
margin-left: 1em;
}

.glt  {
font-size: normal;
text-align: left;
margin-right: 1em;
font-weight: bold;
}

.gltx  {
font-size: normal;
text-align: left;
margin-left: 1em;
}

.add  {
font-size: normal;
text-align: left;
}

.ntx  {
font-size: small;
text-align: justify;
margin-left: 1em;
}

.kp  {
font-size: small;
text-align: justify;
margin-left: 1em;
}

.n1  {
font-size: normal;
text-align: center;
font-weight: bold;
}

.n2  {
font-size: normal;
text-align: center;
font-style: italic;
}

.n3  {
font-size: normal;
text-align: left;
}

.bibtx  {
font-size: small;
text-align: justify;
margin-left: 1em;
}

.b1  {
font-size: normal;
text-align: center;
font-weight: bold;
}

.b2  {
font-size: normal;
text-align: center;
font-style: italic;
}

.b3  {
font-size: normal;
text-align: left;
}

.intx  {
font-size: small;
text-align: justify;
margin-left: 1em;
}

.in1  {
font-size: normal;
text-align: center;
font-weight: bold; 
margin-top: 2em;
margin-bottom: 1em;
}

.ine  {
font-size: small;
text-align: left;
margin-left: 2em;
text-indent: -1em;
}

.inse  {
font-size: small;
text-align: left;
margin-left: 3em;
margin-left: -1em;
}

.insse  {
font-size: x-small;
text-align: left;
margin-left: 4em;
margin-left: -1em;
}

.acmh  {
font-size: normal;
text-align: center;
margin-bottom: 1em;
}

.acsh  {
font-size: small;
text-align: center;
margin-top: 2em;
margin-bottom: 1em;
}

.acl  {
font-size: small;
text-align: center;
font-style: italic;
}

.bobt  {
font-size: large;
text-align: center;
}

.bobst  {
font-size: medium;
text-align: center;
}

.bobh1  {
font-size: medium; 
font-weight: bold; 
text-align: center;
margin-top: 2em;
margin-bottom: 1em;
}

.bobh2  {
font-size: medium; 
text-align: center;
margin-top: 2em;
margin-bottom: 1em;
}

.bobh3  {
font-size: medium; 
font-style: italic; 
text-align: left;
margin-top: 2em;
margin-bottom: 1em;
}

.bobtx  {
font-size: normal;
text-align: justify;
text-indent: 1em;
}

.bobtx1  {
font-size: normal;
text-align: justify;
}

.bobqh  {
font-size: medium;
text-align: center;
}

.bobq {
display: block;
font-size: small;
text-align: left;
text-indent: 1em;
margin-left: 1em;
margin-right: 1em;
margin-top: 1em;
margin-bottom: 1em;
}

.bobq1 {
display: block;
font-size: small;
text-align: left;
margin-left: 1em;
margin-right: 1em;
margin-top: 1em;
margin-bottom: 1em;
}

.bobqs {
font-size: normal;
text-align: right;
font-style: italic;
margin-right: 2em;
margin-bottom: 1em;
}













.crtT  {
font-size: normal;
text-align: center;
}  

.crtBT-T  {
font-size: normal;
text-align: center;
}  

.crtST  {
font-size: small;
text-align: center;
}  

.crtBT-ST  {
font-size: small;
text-align: center;
}

.crt  {
font-size: small;
text-align: center;
}

.crtg  {
font-size: small;
text-align: center;
background-color: #DDDDDD;
}

.crt1  {
font-size: small;
text-align: center;
}

.crt1g  {
font-size: small;
text-align: center;
background-color: #DDDDDD;
}


.acrt  {
font-size: normal;
text-align: center;
text-indent: 1em;
margin-top: 6px;
margin-bottom: 6px;
margin-left: 3em;
}

.acrt1  {
font-size: normal;
text-align: center;
margin-top: 6px;
margin-bottom: 6px;
margin-left: 3em;
}

.acrtg  {
font-size: normal;
text-align: center;
text-indent: 1em;
margin-top: 6px;
margin-bottom: 6px;
margin-left: 3em;
background-color: #DDDDDD;
}

.acrt1g  {
font-size: normal;
text-align: center;
margin-top: 6px;
margin-bottom: 6px;
margin-left: 3em;
background-color: #DDDDDD;
}

.crtbox  {
font-size: small;
text-align: center;
 margin-top: 1em;
 margin-left: 20px;
 margin-right: 20px;
 border-width: 1;
 border: solid;
 padding: 1em;
 margin-bottom: 1em;
}

.crtboxg  {
font-size: small;
text-align: center;
background-color: #DDDDDD;
 margin-top: 1em;
 margin-left: 20px;
 margin-right: 20px;
 border-width: 1;
 border: solid;
 padding: 1em;
 margin-bottom: 1em;
}










.cfmh  {
font-size: normal;
text-align: left;
font-style: italic;
}

.cpn  {
font-size: medium;
text-align: left;
margin-top: 1em;
}

.cpt  {
font-size: medium;
text-align: left;
margin-bottom: 18px;
}

.ccn  {
font-size: normal;
text-align: left;
margin-bottom: 18px;
}

.cct  {
font-size: normal;
text-align: left;
}

.ch1  {
font-size: normal;
text-align: left;
margin-left: 1em;
text-indent: 1em;
}

.cbmh  {
font-size: normal;
text-align: left;
font-style: italic;
}

.vt  {
font-size: medium;
text-align: center;
margin-bottom: 1em;
}

.vst  {
font-size: medium;
text-align: center;
}

.vepi  {
font-size: small;
text-align: justify;
margin-left: 8em;
margin-right: 2em;
}

.vepiv  {
font-size: small;
text-align: justify;
margin-left: 8em;
margin-right: 2em;
}

.vepivc  {
font-size: small;
text-align: center;
}

.veps  {
font-size: small;
text-align: right;
font-style: italic;
margin-right: 2em;
margin-bottom: 1em;
}

.vda  {
font-size: small;
text-align: right;
font-style: italic;
}

.vded  {
font-size: small;
text-align: center;
font-style: italic;
}


.vhn  {
font-size: normal;
text-align: left;
font-weight: bold;
}

.vh1  {
font-size: normal;
text-align: center;
font-weight: bold;
}

.vh2  {
font-size: normal;
text-align: center;
}

.vh3  {
font-size: normal;
text-align: center;
font-style: italic;
}

.vtx  {
font-size: normal;
text-align: left;
margin-left: 2em;
}

.vtxc  {
font-size: normal;
text-align: center;
margin-left: 2em;
}

.vrtx  {
font-size: normal;
text-align: justify;
}

.ausig  {
font-size: normal;
text-align: right;
font-style: italic; 
margin-right: 1em;
}

.menu  {
font-size: normal;
text-align: center;
font-style: italic; 
}

.cc  {
font-size: normal;
text-align: left;
}

.srhn  {
font-size: normal;
text-align: justify;
text-indent:  1em;
}
.rh  {
font-size: medium;
text-align: center;
font-style: italic; 
}

.rsh  {
font-size: medium;
text-align: center; 
}

.rhn  {
font-size: normal;
text-align: justify;
text-indent:  1em;
}

.rih  {
font-size: normal;
text-align: left;
font-style: italic; 
}

.ri  {
font-size: normal;
text-align: left;
text-indent: -2em;
margin-left: 2em;
}

.rp  {
font-size: normal;
text-align: justify;
text-indent: 1em; 
}

.ry  {
font-size: normal;
text-align: right;
}

.srh  {
font-size: medium;
text-align: center; 
}

.srsh  {
font-size: normal;
text-align: center;
font-weight: bold;
}

.srsh1  {
font-size: medium;
text-align: center;
}

.srsh2  {
font-size: medium;
text-align: left;
font-style: italic;
}

.srih  {
font-size: normal;
text-align: left;
font-style: italic;
}

.sri  {
font-size: normal;
text-align: left;
text-indent: -2em;
margin-left: 2em;
}

.srp  {
font-size: normal;
text-align: justify;
text-indent: 1em;
}

.sry  {
font-size: normal;
text-align: right;
}

.rni  {
font-size: small;
text-align: left;
}

.rnh  {
font-size: normal;
text-align: center;
}

.rn  {
font-size: small;
text-align: justify;
text-indent: 1em;
}

.rvh  {
font-size: normal;
text-align: center;
font-weight: bold;
}

.rv  {
font-size: normal;
text-align: justify;
text-indent: 1em;
}

.rg  {
font-size: normal;
text-align: right;
}

.rghl  {
font-size: x-large;
text-align: center;
font-weight: bold;
}

.rgbt  {
font-size: x-large;
text-align: center;
font-weight: bold;
}

.rgst  {
font-size: large;
text-align: center;
}

.rgrl  {
font-size: normal;
text-align: center;
font-style: italic;
}

.rgau  {
font-size: x-large;
text-align: center;
}

.rgcon  {
font-size: medium;
text-align: center;
}

.rgtr  {
font-size: normal;
text-align: center;
}

.rgimp  {
font-size: normal;
text-align: center;
}

.rgcr  {
font-size: small;
text-align: left;
}

.rgdc  {
font-size: x-small;
text-align: center;
font-style: italic;
}

.rgsi  {
font-size: small;
text-align: left;
}

.rgh1  {
font-size: medium; 
font-weight: bold; 
text-align: center;
margin-top: 2em;
margin-bottom: 1em;
}

.rgh2  {
font-size: medium; 
text-align: center;
margin-top: 2em;
margin-bottom: 1em;
}

.rgh3  {
font-size: medium; 
font-style: italic; 
text-align: left;
margin-top: 2em;
margin-bottom: 1em;
}

.rgtx  {
font-size: normal;
text-align: justify;
text-indent: 1em;
}

.rgtx1  {
display: block; 
font-size: normal;
text-align: justify;
}

.rgatx  {
font-size: normal;
text-align: justify;
text-indent: 1em;
}

.rgatx1  {
font-size: normal;
text-align: justify;
}

.rgata  {
font-size: normal;
text-align: left;
margin-left: 1em;
}

.rgatb  {
font-size: normal;
text-align: left;
margin-left: 1em;
}

.rgati  {
font-size: normal;
text-align: left;
margin-left: 1em;
}

.rgext  {
display: block;
font-size: small;
text-align: left;
text-indent: 1em;
margin-left: 1em;
margin-right: 1em;
margin-top: 1em;
margin-bottom: 1em;
}

.rgextv  {
font-size: small;
text-align: left;
margin-left: 1em;
margin-right: 1em;
}

.rgnp  {
font-size: normal;
text-indent: 1em;
margin-left: 1em;
}

.rgbp  {
font-size: normal;
margin-left: 1em;
}

.rgnl  {
font-size: normal;
margin-left: 1em;
}

.rgnsl  {
font-size: normal;
margin-left: 2em;
}

.rgal  {
font-size: normal;
margin-left: 1em;
}

.rgasl  {
font-size: normal;
margin-left: 2em;
}

.rgbl  {
font-size: normal;
margin-left: 1em;
}

.rgbsl  {
font-size: normal;
margin-left: 2em;
}

.rgul  {
font-size: normal;
margin-left: 1em;
}

.rgusl  {
font-size: normal;
margin-left: 2em;
}

.rgck  {
font-size: normal;
margin-left: 1em;
}

.rgcksl  {